Circuit: * C:\Users\BilgeKaan\Desktop\Bilge Kaan\2024 Spring\EE 313\Lab\Project\Draft1.asc

Direct Newton iteration failed to find .op point.  (Use ".option noopiter" to skip.)
Starting Gmin stepping
Gmin = 10
Gmin = 1.07374
Gmin = 0.115292
Gmin = 0.0123794
Gmin = 0.00132923
Gmin = 0.000142725
Gmin = 1.5325e-05
Gmin = 1.6455e-06
Gmin = 1.76685e-07
Gmin = 1.89714e-08
Gmin = 2.03704e-09
Gmin = 2.18725e-10
Gmin = 2.34854e-11
Gmin = 2.52173e-12
Gmin = 2.70769e-13
Gmin = 0
Gmin stepping succeeded in finding the operating point.


Date: Tue Jun  4 09:30:28 2024
Total elapsed time: 0.160 seconds.

tnom = 27
temp = 27
method = modified trap
totiter = 2729
traniter = 2096
tranpoints = 1049
accept = 1049
rejected = 0
matrix size = 37
fillins = 48
solver = Normal
Avg thread counts: 1.5/1.9/1.9/1.5
Matrix Compiler1: 3.91 KB object code size  1.1/0.6/[0.5]
Matrix Compiler2: 3.69 KB object code size  0.5/0.4/[0.4]

