Circuit: * C:\Users\BilgeKaan\Desktop\Bilge Kaan\2024 Spring\EE 313\Lab\Project\ecd_project_irem[1].asc

Limiting rise time of source v5 to 0.02
Limiting fall time of source v5 to 0.02
Direct Newton iteration failed to find .op point.  (Use ".option noopiter" to skip.)
Starting Gmin stepping
Gmin = 10
vernier = 0.5
Gmin = 1.67772
vernier = 0.25
vernier = 0.125
Gmin = 1.20453
vernier = 0.0625
vernier = 0.03125
Gmin = 1.14054
vernier = 0.0416667
vernier = 0.0208333
vernier = 0.0277778
Gmin = 1.08658
vernier = 0.0138889
vernier = 0.00694444
Gmin = 1.07346
vernier = 0.00925925
vernier = 0.00462963
Gmin = 1.05867
vernier = 0.00617283
vernier = 0.00308642
Gmin = 1.04892
vernier = 0.00411522
vernier = 0.00205761
Gmin = 1.0414
vernier = 0.00274348
Gmin = 1.03499
vernier = 0.00365797
vernier = 0.00182899
vernier = 0.00243865
vernier = 0.00121932
Gmin = 1.032
vernier = 0.00162576
Gmin = 1.02834
vernier = 0.00216769
vernier = 0.00108384
vernier = 0.00144512
Gmin = 1.02578
vernier = 0.00192683
vernier = 0.000963415
Gmin = 1.02332
vernier = 0.00128455
vernier = 0.000642277
vernier = 0.000856369
Gmin = 1.02181
vernier = 0.00114182
vernier = 0.000570912
Gmin = 1.02036
vernier = 0.000761216
vernier = 0.00101495
vernier = 0.000507477
Gmin = 1.01892
vernier = 0.000676636
Gmin = 1.01737
vernier = 0.000902182
vernier = 0.000451091
vernier = 0.000601454
Gmin = 1.01633
vernier = 0.000801939
vernier = 0.000400969
Gmin = 1.01537
vernier = 0.000534626
vernier = 0.000400969
Gmin = 1.01442
vernier = 0.000534626
vernier = 0.000400969
vernier = 0.000534626
vernier = 0.000400969
Gmin = 1.01381
vernier = 0.000534625
vernier = 0.000400969
Gmin = 1.013
vernier = 0.000534625
vernier = 0.000400969
Gmin = 0
Gmin stepping failed

Starting source stepping with srcstepmethod=0
Source Step = 3.0303%
Source Step = 33.3333%
Source Step = 63.6364%
Source Step = 93.9394%
vernier = 0.25
Source Step = 92.6136%
vernier = 0.015625
Source Step = 92.5367%
Source Step = 92.5663%
Source Step = 92.5959%
Source Step = 92.6255%
Source Step = 92.6551%
vernier = 0.00146484
Source Step = 92.6906%
Source Step = 92.735%
Source Step = 92.7794%
Source Step = 92.8237%
Source Step = 92.8681%
vernier = 0.00219727
Source Step = 92.9192%
Source Step = 92.9858%
Source Step = 93.0523%
Source Step = 93.1189%
Source Step = 93.1855%
vernier = 0.0032959
Source Step = 93.2588%
Source Step = 93.3586%
Source Step = 93.4585%
Source Step = 93.5584%
Source Step = 93.6583%
vernier = 0.00494385
Source Step = 93.7631%
Source Step = 93.9129%
Source Step = 94.0628%
Source Step = 94.2126%
Source Step = 94.3624%
Source Step = 94.5122%
vernier = 0.00741577
Source Step = 94.6639%
Source Step = 94.7201%
Source Step = 94.7762%
Source Step = 94.8324%
Source Step = 94.8886%
Source Step = 94.9448%
vernier = 0.00278091
Source Step = 95.0262%
Source Step = 95.1105%
Source Step = 95.1948%
Source Step = 95.2791%
Source Step = 95.3633%
vernier = 0.00417137
Source Step = 95.4813%
Source Step = 95.6077%
Source Step = 95.7341%
Source Step = 95.8605%
Source Step = 95.9869%
vernier = 0.00625706
Source Step = 96.1244%
Source Step = 96.1718%
Source Step = 96.2192%
Source Step = 96.2666%
Source Step = 96.314%
Source Step = 96.3614%
Source Step = 96.4088%
vernier = 0.0023464
Source Step = 96.4775%
Source Step = 96.5486%
Source Step = 96.6197%
Source Step = 96.6908%
Source Step = 96.7619%
vernier = 0.00351959
Source Step = 96.8615%
Source Step = 96.9681%
Source Step = 97.0748%
Source Step = 97.1815%
Source Step = 97.2881%
vernier = 0.00527939
Source Step = 97.4321%
Source Step = 97.5921%
Source Step = 97.7521%
Source Step = 97.912%
Source Step = 98.072%
vernier = 0.00791909
Source Step = 98.28%
Source Step = 98.52%
Source Step = 98.7599%
Source Step = 98.9999%
Source Step = 99.2399%
vernier = 0.0118786
Source Step = 99.5399%
Source Step = 99.8998%
Source stepping succeeded in finding the operating point.

Singular matrix:  Check node u1:5
   Iteration No. 2
Fatal Error: Singular matrix:  check node u1:5
   Iteration No. 2

