Circuit: * C:\Users\BilgeKaan\Desktop\Bilge Kaan\2024 Spring\EE 313\Lab\Project\Project.asc

Limiting rise time of source v2 to 0.02
Limiting fall time of source v2 to 0.02
Direct Newton iteration failed to find .op point.  (Use ".option noopiter" to skip.)
Starting Gmin stepping
Gmin = 10
vernier = 0.5
Gmin = 1.67772
vernier = 0.25
vernier = 0.125
Gmin = 1.20453
vernier = 0.0625
vernier = 0.03125
Gmin = 1.14054
vernier = 0.0416667
vernier = 0.0208333
vernier = 0.0277778
Gmin = 1.08658
vernier = 0.0138889
vernier = 0.0185185
vernier = 0.00925925
Gmin = 1.07037
vernier = 0.0123457
vernier = 0.00617283
Gmin = 1.05481
vernier = 0.00823044
vernier = 0.00411522
vernier = 0.00548696
vernier = 0.00274348
Gmin = 1.04796
vernier = 0.00365797
Gmin = 1.03961
vernier = 0.0048773
vernier = 0.00243865
vernier = 0.00325153
vernier = 0.00162576
Gmin = 1.0355
vernier = 0.00216769
Gmin = 1.0306
vernier = 0.00289025
vernier = 0.00144512
vernier = 0.00192683
vernier = 0.000963415
Gmin = 1.02819
vernier = 0.00128455
Gmin = 1.0253
vernier = 0.00171274
vernier = 0.000856369
vernier = 0.00114182
Gmin = 1.02329
vernier = 0.00152243
vernier = 0.000761216
Gmin = 1.02135
vernier = 0.00101495
vernier = 0.000507477
Gmin = 1.01986
vernier = 0.000676636
vernier = 0.000902182
vernier = 0.000451091
Gmin = 1.01858
vernier = 0.000601454
Gmin = 1.0172
vernier = 0.000801939
vernier = 0.000400969
vernier = 0.000534626
Gmin = 1.01628
vernier = 0.000712834
vernier = 0.000534626
Gmin = 1.0152
vernier = 0.000712834
vernier = 0.000534626
vernier = 0.000400969
Gmin = 1.01445
vernier = 0.000534625
vernier = 0.000400969
Gmin = 1.01364
vernier = 0.000534625
vernier = 0.000400969
vernier = 0.000534625
vernier = 0.000400969
Gmin = 1.01303
Gmin = 0
Gmin stepping failed

Starting source stepping with srcstepmethod=0
Source Step = 3.0303%
Source Step = 33.3333%
Source Step = 63.6364%
Source Step = 93.9394%
vernier = 0.25
Source Step = 91.3826%
Source Step = 91.5009%
Source Step = 91.6193%
Source Step = 91.7377%
Source Step = 91.8561%
vernier = 0.00585938
Source Step = 91.9922%
Source Step = 92.1697%
Source Step = 92.3473%
Source Step = 92.5249%
Source Step = 92.7024%
vernier = 0.00878906
Source Step = 92.8977%
Source Step = 93.1641%
Source Step = 93.4304%
Source Step = 93.6967%
Source Step = 93.7766%
Source Step = 93.8432%
Source Step = 93.9098%
Source Step = 93.9764%
Source Step = 94.043%
vernier = 0.0032959
Source Step = 94.1329%
Source Step = 94.2327%
Source Step = 94.3326%
Source Step = 94.4325%
Source Step = 94.5324%
vernier = 0.00494385
Source Step = 94.6622%
Source Step = 94.812%
Source Step = 94.9618%
Source Step = 95.1116%
Source Step = 95.2615%
vernier = 0.00741577
Source Step = 95.4487%
Source Step = 95.6734%
Source Step = 95.8982%
Source Step = 96.1229%
Source Step = 96.3476%
vernier = 0.0111237
Source Step = 96.6173%
Source Step = 96.9543%
Source Step = 97.2914%
Source Step = 97.6285%
Source Step = 97.9656%
vernier = 0.0166855
Source Step = 98.3532%
Source Step = 98.8589%
Source Step = 99.3645%
Source Step = 99.8701%
Source stepping succeeded in finding the operating point.


Date: Fri Apr 19 18:11:05 2024
Total elapsed time: 3.541 seconds.

tnom = 27
temp = 27
method = modified trap
totiter = 52647
traniter = 34075
tranpoints = 9265
accept = 6558
rejected = 2707
matrix size = 150
fillins = 473
solver = Normal
Avg thread counts: 3.0/1.1/1.1/1.0
Matrix Compiler1: 44.94 KB object code size  12.5/7.7/[6.7]
Matrix Compiler2: 19.44 KB object code size  3.2/7.2/[1.9]

