Circuit: * C:\Users\BilgeKaan\Desktop\Bilge Kaan\2024 Spring\EE 313\Lab\Project\Project_BilgeKaanAtes.asc

Limiting rise time of source vswitch to 0.02
Limiting fall time of source vswitch to 0.02
Direct Newton iteration for .op point succeeded.

Date: Wed May  8 10:10:28 2024
Total elapsed time: 0.869 seconds.

tnom = 27
temp = 27
method = modified trap
totiter = 98531
traniter = 98505
tranpoints = 21276
accept = 15018
rejected = 6258
matrix size = 161
fillins = 151
solver = Normal
Avg thread counts: 1.0/2.0/1.0/1.0
Matrix Compiler1: 12.62 KB object code size  3.0/1.4/[1.4]
Matrix Compiler2: 13.95 KB object code size  0.7/1.0/[0.5]

