Circuit: * C:\Users\BilgeKaan\Desktop\Bilge Kaan\2024 Spring\EE 313\Lab\Lab1\Draft5.asc

Direct Newton iteration for .op point succeeded.
Semiconductor Device Operating Points:
                        --- Diodes ---
Name:      d1
Model:   1n4148
Id:      9.42e-04
Vd:      5.82e-01
Req:     4.81e+01
CAP:     4.21e-10



Date: Sun Feb 18 14:48:34 2024
Total elapsed time: 0.028 seconds.

tnom = 27
temp = 27
method = trap
totiter = 8
traniter = 0
tranpoints = 0
accept = 0
rejected = 0
matrix size = 4
fillins = 0
solver = Normal
Avg thread counts: 12.0/0.0/12.0/12.0
Matrix Compiler1: 118 bytes object code size
Matrix Compiler2: 248 bytes object code size
