Circuit: * C:\Users\BilgeKaan\Desktop\Bilge Kaan\2024 Spring\EE 313\Lab\Lab1\trial.asc

Early termination of direct N-R iteration.
Direct Newton iteration failed to find .op point.  (Use ".option noopiter" to skip.)
Starting Gmin stepping
Gmin = 10
vernier = 0.5
vernier = 0.25
vernier = 0.125
Gmin = 6.68666
vernier = 0.0625
vernier = 0.03125
vernier = 0.015625
vernier = 0.0078125
Gmin = 6.81552
vernier = 0.00390625
vernier = 0.00195312
vernier = 0.000976562
vernier = 0.000488281
Gmin = 6.8205
Gmin = 0
Gmin stepping succeeded in finding the operating point.


Date: Sun Feb 11 13:23:04 2024
Total elapsed time: 0.169 seconds.

tnom = 27
temp = 23
method = modified trap
totiter = 3997
traniter = 2607
tranpoints = 1208
accept = 1165
rejected = 43
matrix size = 62
fillins = 187
solver = Normal
Avg thread counts: 1.4/1.8/1.8/1.4
Matrix Compiler1: 14.88 KB object code size  2.8/1.2/[1.1]
Matrix Compiler2: 8.23 KB object code size  0.8/0.9/[0.3]

