Circuit: * C:\Users\BilgeKaan\Desktop\Bilge Kaan\2024 Spring\EE 313\Lab\Lab4\Lab4.asc

Warning: Multiple definitions of model "2scr375p" Type: BJT
Warning: Multiple definitions of model "bc857b" Type: BJT
Warning: Multiple definitions of model "bc847c" Type: BJT
Warning: Multiple definitions of model "bc847b" Type: BJT
Direct Newton iteration for .op point succeeded.
Changing Tseed to 9.76562e-13
Heightened Def Con from 9.7951e-13 to 2.00098e-09

Date: Wed Apr 24 11:42:08 2024
Total elapsed time: 0.284 seconds.

tnom = 27
temp = 27
method = modified trap
totiter = 2392
traniter = 2385
tranpoints = 1086
accept = 1066
rejected = 20
matrix size = 19
fillins = 8
solver = Normal
Avg thread counts: 1.4/1.9/1.9/1.4
Matrix Compiler1:      88 opcodes  2.3/[1.8]/5.1
Matrix Compiler2: 1.69 KB object code size  0.9/1.6/[0.4]

