Circuit: * C:\Users\BilgeKaan\Desktop\Bilge Kaan\2024 Spring\EE 313\Lab\Lab2\Draft1.asc

Warning: Multiple definitions of model "2scr375p" Type: BJT
Warning: Multiple definitions of model "bc857b" Type: BJT
Warning: Multiple definitions of model "bc847c" Type: BJT
Warning: Multiple definitions of model "bc847b" Type: BJT
Direct Newton iteration for .op point succeeded.

Date: Sun Feb 25 18:54:44 2024
Total elapsed time: 0.095 seconds.

tnom = 27
temp = 27
method = modified trap
totiter = 2091
traniter = 2082
tranpoints = 1042
accept = 1042
rejected = 0
matrix size = 5
fillins = 0
solver = Normal
Avg thread counts: 1.5/1.9/1.9/1.5
Matrix Compiler1: 266 bytes object code size  0.1/0.1/[0.1]
Matrix Compiler2: off  [0.1]/0.1/0.1

