Circuit: * C:\Users\BilgeKaan\Desktop\Bilge Kaan\2024 Spring\EE 313\Lab\Lab2\Lab2_betameasurement.asc

Warning: Multiple definitions of model "2scr375p" Type: BJT
Warning: Multiple definitions of model "bc857b" Type: BJT
Warning: Multiple definitions of model "bc847c" Type: BJT
Warning: Multiple definitions of model "bc847b" Type: BJT
Direct Newton iteration for .op point succeeded.

Date: Mon Feb 26 13:17:11 2024
Total elapsed time: 0.135 seconds.

tnom = 27
temp = 27
method = modified trap
totiter = 2090
traniter = 2082
tranpoints = 1042
accept = 1042
rejected = 0
matrix size = 7
fillins = 0
solver = Normal
Avg thread counts: 1.5/1.9/1.9/1.5
Matrix Compiler1:      24 opcodes  0.1/[0.1]/0.1
Matrix Compiler2:      45 opcodes  0.1/[0.1]/0.1

