Circuit: * C:\Users\BilgeKaan\Desktop\Bilge Kaan\2024 Spring\EE 313\Lab\Lab2\Lab2.asc

Warning: Multiple definitions of model "2scr375p" Type: BJT
Warning: Multiple definitions of model "bc857b" Type: BJT
Warning: Multiple definitions of model "bc847c" Type: BJT
Warning: Multiple definitions of model "bc847b" Type: BJT
Early termination of direct N-R iteration.
Direct Newton iteration failed to find .op point.  (Use ".option noopiter" to skip.)
Starting Gmin stepping
Gmin = 10
vernier = 0.5
vernier = 0.25
vernier = 0.125
vernier = 0.0625
Gmin = 8.61953
vernier = 0.03125
vernier = 0.015625
vernier = 0.0078125
vernier = 0.00390625
Gmin = 8.47038
vernier = 0.00195312
vernier = 0.000976562
vernier = 0.000488281
Gmin = 0
Gmin stepping failed

Starting source stepping with srcstepmethod=0
Source Step = 3.0303%
Source Step = 33.3333%
Source Step = 63.6364%
Source Step = 76.5152%
Source Step = 78.4091%
Source Step = 80.303%
Source Step = 82.197%
Source Step = 84.0909%
vernier = 0.09375
Source Step = 86.2689%
Source Step = 89.1098%
Source Step = 91.9508%
Source Step = 94.7917%
Source Step = 97.6326%
vernier = 0.140625
Source stepping succeeded in finding the operating point.


Date: Wed Feb 28 09:46:53 2024
Total elapsed time: 0.692 seconds.

tnom = 27
temp = 27
method = modified trap
totiter = 27827
traniter = 25459
tranpoints = 12718
accept = 8340
rejected = 4378
matrix size = 63
fillins = 270
solver = Normal
Avg thread counts: 1.0/1.1/1.1/1.0
Matrix Compiler1: 19.03 KB object code size  7.1/2.9/[2.9]
Matrix Compiler2: off  [1.7]/2.9/2.4

