Circuit: * C:\Users\BilgeKaan\Desktop\Bilge Kaan\2024 Spring\EE 313\Lab\Lab3\Lab3_test.asc

Warning: Multiple definitions of model "2scr375p" Type: BJT
Warning: Multiple definitions of model "bc857b" Type: BJT
Warning: Multiple definitions of model "bc847c" Type: BJT
Warning: Multiple definitions of model "bc847b" Type: BJT
Direct Newton iteration for .op point succeeded.
.step vin=0
.step vin=0.01
.step vin=0.02
.step vin=0.03
.step vin=0.04
.step vin=0.05
.step vin=0.06
.step vin=0.07


Measurement: ps
  step	AVG(-v(vcc)*i(v2)+v(-vcc)*i(v3))	FROM	TO
     1	2.53988	0	0.002
     2	2.5396	0	0.002
     3	2.53919	0	0.002
     4	2.53839	0	0.002
     5	2.53729	0	0.002
     6	2.5359	0	0.002
     7	2.53428	0	0.002
     8	2.5324	0	0.002

Measurement: pout
  step	AVG(v(vout)*i(r5))	FROM	TO
     1	0.528244	0	0.002
     2	0.528358	0	0.002
     3	0.528964	0	0.002
     4	0.529935	0	0.002
     5	0.531317	0	0.002
     6	0.533112	0	0.002
     7	0.535359	0	0.002
     8	0.538024	0	0.002

Measurement: efficiency
  step	pout/ps
     1	0.20798
     2	0.208048
     3	0.20832
     4	0.208768
     5	0.209403
     6	0.210226
     7	0.211247
     8	0.212456

Measurement: voutpp
  step	PP(v(vout))	FROM	TO
     1	0	0	0.002
     2	0.13277	0	0.002
     3	0.265781	0	0.002
     4	0.40102	0	0.002
     5	0.53531	0	0.002
     6	0.668752	0	0.002
     7	0.802537	0	0.002
     8	0.935408	0	0.002

Measurement: gain
  step	20*log10(voutpp/(2*vin))
     1	-nan(ind)
     2	16.4414
     3	16.4493
     4	16.5003
     5	16.5103
     6	16.5053
     7	16.5057
     8	16.4975


Date: Mon Mar 25 14:14:12 2024
Total elapsed time: 0.383 seconds.

tnom = 27
temp = 27
method = modified trap
totiter = 3332
traniter = 3324
tranpoints = 1663
accept = 1409
rejected = 254
matrix size = 30
fillins = 20
solver = Normal
Avg thread counts: 1.3/1.6/1.6/1.3
Matrix Compiler1: 3.40 KB object code size  0.7/0.4/[0.3]
Matrix Compiler2: 2.95 KB object code size  0.3/0.4/[0.2]

