Circuit: * C:\Users\BilgeKaan\Desktop\Bilge Kaan\2024 Spring\EE 313\Lab\Lab3\Lab3.asc

Warning: Multiple definitions of model "2scr375p" Type: BJT
Warning: Multiple definitions of model "bc857b" Type: BJT
Warning: Multiple definitions of model "bc847c" Type: BJT
Warning: Multiple definitions of model "bc847b" Type: BJT
Direct Newton iteration for .op point succeeded.

ps: AVG(-v(vcc)*i(v2)+v(-vcc)*i(v3))=2.37275 FROM 0 TO 0.04
pout: AVG(v(vout)*i(r5))=0.542 FROM 0 TO 0.04
efficiency: pout/ps=0.228427
voutpp: PP(v(vout))=6.03044 FROM 0 TO 0.04
gain: 20*log10(voutpp/(2*vin))=20.0439


Date: Tue Mar 26 00:24:24 2024
Total elapsed time: 0.222 seconds.

tnom = 27
temp = 27
method = modified trap
totiter = 20748
traniter = 20727
tranpoints = 9271
accept = 6338
rejected = 2933
matrix size = 65
fillins = 48
solver = Normal
Avg thread counts: 1.0/2.1/1.1/1.0
Matrix Compiler1: 6.15 KB object code size  1.1/0.6/[0.5]
Matrix Compiler2: 6.24 KB object code size  0.5/0.5/[0.4]

