Circuit: * C:\Users\BilgeKaan\Desktop\Bilge Kaan\2024 Spring\EE 313\Lab\Lab3\trial.asc

Warning: Multiple definitions of model "2scr375p" Type: BJT
Warning: Multiple definitions of model "bc857b" Type: BJT
Warning: Multiple definitions of model "bc847c" Type: BJT
Warning: Multiple definitions of model "bc847b" Type: BJT
Direct Newton iteration for .op point succeeded.

Date: Sat Mar 23 17:15:36 2024
Total elapsed time: 0.163 seconds.

tnom = 27
temp = 27
method = modified trap
totiter = 2092
traniter = 2088
tranpoints = 1045
accept = 1045
rejected = 0
matrix size = 7
fillins = 0
solver = Normal
Avg thread counts: 1.5/1.9/1.9/1.5
Matrix Compiler1:      24 opcodes  0.1/[0.1]/0.1
Matrix Compiler2: 569 bytes object code size  0.1/0.1/[0.1]

